Circuit: * C:\Users\Kim\Documents\GitHub\spice-simulations\425-440.asc

.OP point found by inspection.

Date: Wed Feb 26 12:56:17 2014
Total elapsed time: 0.279 seconds.

tnom = 27
temp = 27
method = modified trap
totiter = 73448
traniter = 73448
tranpoints = 36725
accept = 24746
rejected = 11979
matrix size = 12
fillins = 0
solver = Normal
Matrix Compiler1: 554 bytes object code size  0.4/0.2/[0.1]
Matrix Compiler2: off  [0.1]/0.2/0.1


