Circuit: * C:\Users\Kim\Documents\GitHub\spice-simulations\simple_transformer.asc

Direct Newton iteration for .op point succeeded.

Date: Wed Feb 26 11:18:54 2014
Total elapsed time: 0.056 seconds.

tnom = 27
temp = 27
method = modified trap
totiter = 7465
traniter = 7462
tranpoints = 3732
accept = 2489
rejected = 1243
matrix size = 6
fillins = 1
solver = Normal
Matrix Compiler1: 290 bytes object code size  0.2/0.1/[0.0]
Matrix Compiler2: off  [0.0]/0.1/0.1


